/*---------------------------------------------------------------------------*\
| =========                 |                                                 |
| \\      /  F ield         | OpenFOAM: The Open Source CFD Toolbox           |
|  \\    /   O peration     | Version:  2406                                  |
|   \\  /    A nd           | Website:  www.openfoam.com                      |
|    \\/     M anipulation  |                                                 |
\*---------------------------------------------------------------------------*/
Build  : _630d60de3b-20240620 OPENFOAM=2406 version=v2406
Arch   : "LSB;label=32;scalar=64"
Exec   : surfaceTransformPoints -rotate-y -5 constant/triSurface/original_blade.stl constant/triSurface/blade_1.stl
Date   : Nov 21 2025
Time   : 10:31:03
Host   : eu-comp015.cluster.local
PID    : 1689911
I/O    : uncollated
Case   : /gpfs/ts0/projects/Research_Project-129871/rj429/run/simple_run/10_240_-5
nProcs : 1
trapFpe: Floating point exception trapping enabled (FOAM_SIGFPE).
fileModificationChecking : Monitoring run-time modified files using timeStampMaster (fileModificationSkew 5, maxFileModificationPolls 20)
allowSystemOperations : Allowing user-supplied system call operations

// * * * * * * * * * * * * * * * * * * * * * * * * * * * * * * * * * * * * * //
Reading surf from "constant/triSurface/original_blade.stl" ...
Writing surf to "constant/triSurface/blade_1.stl" ...
Rotating points about y-axis: -5
Rotating points by (0.996195 0 -0.0871557 0 1 0 0.0871557 0 0.996195)
End

mv: cannot stat 'log.surfaceTransformPoints': No such file or directory
/*---------------------------------------------------------------------------*\
| =========                 |                                                 |
| \\      /  F ield         | OpenFOAM: The Open Source CFD Toolbox           |
|  \\    /   O peration     | Version:  2406                                  |
|   \\  /    A nd           | Website:  www.openfoam.com                      |
|    \\/     M anipulation  |                                                 |
\*---------------------------------------------------------------------------*/
Build  : _630d60de3b-20240620 OPENFOAM=2406 version=v2406
Arch   : "LSB;label=32;scalar=64"
Exec   : surfaceTransformPoints -rotate-x 10 constant/triSurface/blade_1.stl constant/triSurface/blade.stl
Date   : Nov 21 2025
Time   : 10:31:03
Host   : eu-comp015.cluster.local
PID    : 1689913
I/O    : uncollated
Case   : /gpfs/ts0/projects/Research_Project-129871/rj429/run/simple_run/10_240_-5
nProcs : 1
trapFpe: Floating point exception trapping enabled (FOAM_SIGFPE).
fileModificationChecking : Monitoring run-time modified files using timeStampMaster (fileModificationSkew 5, maxFileModificationPolls 20)
allowSystemOperations : Allowing user-supplied system call operations

// * * * * * * * * * * * * * * * * * * * * * * * * * * * * * * * * * * * * * //
Reading surf from "constant/triSurface/blade_1.stl" ...
Writing surf to "constant/triSurface/blade.stl" ...
Rotating points about x-axis: 10
Rotating points by (1 0 0 0 0.984808 -0.173648 0 0.173648 0.984808)
End

/*---------------------------------------------------------------------------*\
| =========                 |                                                 |
| \\      /  F ield         | OpenFOAM: The Open Source CFD Toolbox           |
|  \\    /   O peration     | Version:  2406                                  |
|   \\  /    A nd           | Website:  www.openfoam.com                      |
|    \\/     M anipulation  |                                                 |
\*---------------------------------------------------------------------------*/
Build  : _630d60de3b-20240620 OPENFOAM=2406 version=v2406
Arch   : "LSB;label=32;scalar=64"
Exec   : surfaceFeatureExtract
Date   : Nov 21 2025
Time   : 10:31:03
Host   : eu-comp015.cluster.local
PID    : 1689914
I/O    : uncollated
Case   : /gpfs/ts0/projects/Research_Project-129871/rj429/run/simple_run/10_240_-5
nProcs : 1
trapFpe: Floating point exception trapping enabled (FOAM_SIGFPE).
fileModificationChecking : Monitoring run-time modified files using timeStampMaster (fileModificationSkew 5, maxFileModificationPolls 20)
allowSystemOperations : Allowing user-supplied system call operations

// * * * * * * * * * * * * * * * * * * * * * * * * * * * * * * * * * * * * * //
Create time


Note: Feature line extraction only valid on closed manifold surfaces

Reading surfaceFeatureExtractDict

Surfaces     : blade.stl
Output       : surfaceFeatureExtractDict
Load options : offset
Write options: writeObj=off writeVTK=off

Statistics:
Triangles    : 4938 in 1 region(s)
Vertices     : 2471
Bounding Box : (-0.185365 -0.0589679 -0.0224728) (0.0587375 0.0200965 0.00952995)

Constructing feature set from included angle 150
Selecting edges based purely on geometric tests: no

Initial Feature set:
    points : 7
    edges  : 182
    of which
        region edges   : 0
        external edges : 38
        internal edges : 144

Final Feature set:
    points : 181
    of which
        convex             : 0
        concave            : 0
        mixed              : 7
        non-feature        : 174
    edges  : 182
    of which
        external edges     : 38
        internal edges     : 144
        flat edges         : 0
        open edges         : 0
        multiply connected : 0

Writing extendedFeatureEdgeMesh to "/gpfs/ts0/projects/Research_Project-129871/rj429/run/simple_run/10_240_-5/constant/extendedFeatureEdgeMesh/surfaceFeatureExtractDict.extendedFeatureEdgeMesh"

Writing featureEdgeMesh to "/gpfs/ts0/projects/Research_Project-129871/rj429/run/simple_run/10_240_-5/constant/triSurface/surfaceFeatureExtractDict.eMesh"
ExecutionTime = 0.02 s  ClockTime = 0 s

End

/*---------------------------------------------------------------------------*\
| =========                 |                                                 |
| \\      /  F ield         | OpenFOAM: The Open Source CFD Toolbox           |
|  \\    /   O peration     | Version:  2406                                  |
|   \\  /    A nd           | Website:  www.openfoam.com                      |
|    \\/     M anipulation  |                                                 |
\*---------------------------------------------------------------------------*/
Build  : _630d60de3b-20240620 OPENFOAM=2406 version=v2406
Arch   : "LSB;label=32;scalar=64"
Exec   : blockMesh
Date   : Nov 21 2025
Time   : 10:31:03
Host   : eu-comp015.cluster.local
PID    : 1689919
I/O    : uncollated
Case   : /gpfs/ts0/projects/Research_Project-129871/rj429/run/simple_run/10_240_-5
nProcs : 1
trapFpe: Floating point exception trapping enabled (FOAM_SIGFPE).
fileModificationChecking : Monitoring run-time modified files using timeStampMaster (fileModificationSkew 5, maxFileModificationPolls 20)
allowSystemOperations : Allowing user-supplied system call operations

// * * * * * * * * * * * * * * * * * * * * * * * * * * * * * * * * * * * * * //
Create time

Creating block mesh from "system/blockMeshDict"
Creating block edges
No non-planar block faces defined
Creating topology blocks

Creating topology patches - from boundary section

Creating block mesh topology

Check topology

	Basic statistics
		Number of internal faces : 8
		Number of boundary faces : 14
		Number of defined boundary faces : 14
		Number of undefined boundary faces : 0
	Checking patch -> block consistency

Creating block offsets
Creating merge list (topological search)...
Deleting polyMesh directory "constant/polyMesh"

Creating polyMesh from blockMesh
Creating patches
Creating cells
Creating points with scale (1 1 1)
    Block 0 cell size :
        i : 0.025 .. 0.025
        j : 0.025 .. 0.025
        k : 0.0375 .. 0.0375

    Block 1 cell size :
        i : 0.025 .. 0.025
        j : 0.0176777 .. 0.0176777
        k : 0.0375 .. 0.0375

    Block 2 cell size :
        i : 0.025 .. 0.025
        j : 0.0176777 .. 0.0176777
        k : 0.0375 .. 0.0375

    Block 3 cell size :
        i : 0.025 .. 0.025
        j : 0.0176777 .. 0.0176777
        k : 0.0375 .. 0.0375

    Block 4 cell size :
        i : 0.025 .. 0.025
        j : 0.0176777 .. 0.0176777
        k : 0.0375 .. 0.0375

No patch pairs to merge

Writing polyMesh with 0 cellZones
----------------
Mesh Information
----------------
  boundingBox: (-0.7 -0.7 -0.75) (0.7 0.7 0.75)
  nPoints: 83681
  nCells: 80000
  nFaces: 243600
  nInternalFaces: 236400
----------------
Patches
----------------
  patch 0 (start: 236400 size: 2000) name: inlet
  patch 1 (start: 238400 size: 2000) name: outlet
  patch 2 (start: 240400 size: 3200) name: outer

End

/*---------------------------------------------------------------------------*\
| =========                 |                                                 |
| \\      /  F ield         | OpenFOAM: The Open Source CFD Toolbox           |
|  \\    /   O peration     | Version:  2406                                  |
|   \\  /    A nd           | Website:  www.openfoam.com                      |
|    \\/     M anipulation  |                                                 |
\*---------------------------------------------------------------------------*/
Build  : _630d60de3b-20240620 OPENFOAM=2406 version=v2406
Arch   : "LSB;label=32;scalar=64"
Exec   : snappyHexMesh -overwrite
Date   : Nov 21 2025
Time   : 10:31:04
Host   : eu-comp015.cluster.local
PID    : 1689924
I/O    : uncollated
Case   : /gpfs/ts0/projects/Research_Project-129871/rj429/run/simple_run/10_240_-5
nProcs : 1
trapFpe: Floating point exception trapping enabled (FOAM_SIGFPE).
fileModificationChecking : Monitoring run-time modified files using timeStampMaster (fileModificationSkew 5, maxFileModificationPolls 20)
allowSystemOperations : Allowing user-supplied system call operations

// * * * * * * * * * * * * * * * * * * * * * * * * * * * * * * * * * * * * * //
Create time

Create mesh for time = 0

Read mesh in = 0.03 s

Overall mesh bounding box  : (-0.7 -0.7 -0.75) (0.7 0.7 0.75)
Relative tolerance         : 1e-06
Absolute matching distance : 2.48395e-06

Reading refinement surfaces.
Read refinement surfaces in = 0.01 s

Reading refinement shells.
Refinement level 2 for all cells inside refinementBox
Refinement level 4 for all cells inside refinementBox2
Read refinement shells in = 0 s

Setting refinement level of surface to be consistent with shells.
For geometry blade.stl detected 0 uncached triangles out of 4938
Checked shell refinement in = 0.02 s

Reading features.
Read edgeMesh surfaceFeatureExtractDict.eMesh
    points      : 181
    edges       : 182
    boundingBox : (-0.185365 -0.0554379 -0.02242) (0.017541 0.0152324 0.0057174)

Refinement level according to distance to "surfaceFeatureExtractDict.eMesh" (181 points, 182 edges).
    level 4 for all cells within 0 metre.
Read features in = 0 s


Determining initial surface intersections
-----------------------------------------

Edge intersection testing:
    Number of edges             : 243600
    Number of edges to retest   : 0
    Number of intersected edges : 0
Edge intersection testing:
    Number of edges             : 243600
    Number of edges to retest   : 243600
    Number of intersected edges : 31
Calculated surface intersections in = 0.25 s

Initial mesh : cells:80000  faces:243600  points:83681
Cells per refinement level:
    0	80000
Setting refinement level of surface to be consistent with curvature.
Checked curvature refinement in = 0 s


Adding patches for surface regions
----------------------------------

Patch Type                Region                        
----- ----                ------                        
seed:

3     wall                seed                          

Added patches in = 0.01 s

Edge intersection testing:
    Number of edges             : 243600
    Number of edges to retest   : 0
    Number of intersected edges : 31
Decomposition method none [1]

Refinement phase
----------------

Found point (0.001 0.001 -0.2999) in cell 4989 on processor 0

Feature refinement iteration 0
------------------------------

Marked for refinement due to explicit features             : 8 cells.
Determined cells to refine in = 0.61 s
Selected for feature refinement : 8 cells (out of 80000)
Edge intersection testing:
    Number of edges             : 243825
    Number of edges to retest   : 427
    Number of intersected edges : 45
Refined mesh in = 0.2 s
After refinement feature refinement iteration 0 : cells:80056  faces:243825  points:83808
Cells per refinement level:
    0	79992
    1	64

Feature refinement iteration 1
------------------------------

Marked for refinement due to explicit features             : 12 cells.
Determined cells to refine in = 0.59 s
Selected for feature refinement : 29 cells (out of 80056)
Edge intersection testing:
    Number of edges             : 244587
    Number of edges to retest   : 1305
    Number of intersected edges : 117
Refined mesh in = 0.18 s
After refinement feature refinement iteration 1 : cells:80259  faces:244587  points:84188
Cells per refinement level:
    0	79975
    1	188
    2	96

Feature refinement iteration 2
------------------------------

Marked for refinement due to explicit features             : 17 cells.
Determined cells to refine in = 0.6 s
Selected for feature refinement : 51 cells (out of 80259)
Edge intersection testing:
    Number of edges             : 245883
    Number of edges to retest   : 2313
    Number of intersected edges : 278
Refined mesh in = 0.19 s
After refinement feature refinement iteration 2 : cells:80616  faces:245883  points:84801
Cells per refinement level:
    0	79960
    1	289
    2	231
    3	136

Feature refinement iteration 3
------------------------------

Marked for refinement due to explicit features             : 35 cells.
Determined cells to refine in = 0.6 s
Selected for feature refinement : 99 cells (out of 80616)
Edge intersection testing:
    Number of edges             : 248355
    Number of edges to retest   : 4366
    Number of intersected edges : 644
Refined mesh in = 0.2 s
After refinement feature refinement iteration 3 : cells:81309  faces:248355  points:85934
Cells per refinement level:
    0	79950
    1	346
    2	384
    3	349
    4	280

Feature refinement iteration 4
------------------------------

Marked for refinement due to explicit features             : 0 cells.
Determined cells to refine in = 0.6 s
Selected for feature refinement : 0 cells (out of 81309)
Stopping refining since too few cells selected.


Surface refinement iteration 0
------------------------------

Marked for refinement due to surface intersection          : 618 cells.
Marked for refinement due to curvature/regions             : 0 cells.
Determined cells to refine in = 0.02 s
Selected for refinement : 729 cells (out of 81309)
Edge intersection testing:
    Number of edges             : 265614
    Number of edges to retest   : 22355
    Number of intersected edges : 2428
Refined mesh in = 0.21 s
After refinement surface refinement iteration 0 : cells:86412  faces:265614  points:93102
Cells per refinement level:
    0	79901
    1	643
    2	992
    3	1353
    4	1755
    5	1768

Surface refinement iteration 1
------------------------------

Marked for refinement due to surface intersection          : 2853 cells.
Marked for refinement due to curvature/regions             : 0 cells.
Determined cells to refine in = 0.02 s
Selected for refinement : 3175 cells (out of 86412)
Edge intersection testing:
    Number of edges             : 338766
    Number of edges to retest   : 94348
    Number of intersected edges : 9280
Refined mesh in = 0.37 s
After refinement surface refinement iteration 1 : cells:108637  faces:338766  points:122066
Cells per refinement level:
    0	79877
    1	698
    2	1721
    3	3655
    4	5859
    5	8467
    6	8360

Surface refinement iteration 2
------------------------------

Marked for refinement due to surface intersection          : 12568 cells.
Marked for refinement due to curvature/regions             : 0 cells.
Determined cells to refine in = 0.02 s
Selected for refinement : 13602 cells (out of 108637)
Edge intersection testing:
    Number of edges             : 649491
    Number of edges to retest   : 398503
    Number of intersected edges : 35880
Refined mesh in = 0.98 s
After refinement surface refinement iteration 2 : cells:203851  faces:649491  points:242842
Cells per refinement level:
    0	79855
    1	789
    2	1912
    3	6012
    4	15173
    5	29373
    6	36953
    7	33784

Surface refinement iteration 3
------------------------------

Marked for refinement due to surface intersection          : 35561 cells.
Marked for refinement due to curvature/regions             : 3686 cells.
Determined cells to refine in = 0.1 s
Selected for refinement : 42322 cells (out of 203851)
Edge intersection testing:
    Number of edges             : 1617471
    Number of edges to retest   : 1279282
    Number of intersected edges : 118217
Refined mesh in = 2.85 s
After refinement surface refinement iteration 3 : cells:500105  faces:1617471  points:620319
Cells per refinement level:
    0	79845
    1	826
    2	2019
    3	5843
    4	24155
    5	76431
    6	127424
    7	154074
    8	29488

Surface refinement iteration 4
------------------------------

Marked for refinement due to surface intersection          : 85613 cells.
Marked for refinement due to curvature/regions             : 8671 cells.
Determined cells to refine in = 0.36 s
Selected for refinement : 102555 cells (out of 500105)
Edge intersection testing:
    Number of edges             : 3963354
    Number of edges to retest   : 3120121
    Number of intersected edges : 308780
Refined mesh in = 6.96 s
After refinement surface refinement iteration 4 : cells:1217990  faces:3963354  points:1534948
Cells per refinement level:
    0	79839
    1	841
    2	2143
    3	6159
    4	20289
    5	126254
    6	338979
    7	539188
    8	76858
    9	27440

Surface refinement iteration 5
------------------------------

Marked for refinement due to surface intersection          : 152182 cells.
Marked for refinement due to curvature/regions             : 10729 cells.
Determined cells to refine in = 0.97 s
Selected for refinement : 176827 cells (out of 1217990)
Edge intersection testing:
    Number of edges             : 8000718
    Number of edges to retest   : 5384375
    Number of intersected edges : 625830
Refined mesh in = 13.46 s
After refinement surface refinement iteration 5 : cells:2455779  faces:8000718  points:3101560
Cells per refinement level:
    0	79836
    1	844
    2	2243
    3	6300
    4	20607
    5	104234
    6	585000
    7	1459779
    8	140360
    9	56576

Surface refinement iteration 6
------------------------------

No cells marked for refinement since reached limit 2000000.
Determined cells to refine in = 0.06 s
Selected for refinement : 0 cells (out of 2455779)
Stopping refining since too few cells selected.


Removing mesh beyond surface intersections
------------------------------------------

Setting cellZones according to locationsInMesh:
Location : (0.001 0.001 -0.2999)
    cellZone : none

For cellZone none found point (0.001 0.001 -0.2999) in global region 0 out of 2 regions.
--> FOAM Warning : 
    From void Foam::meshRefinement::nearestFace(const Foam::labelUList&, const Foam::bitSet&, Foam::autoPtr<Foam::mapDistribute>&, Foam::labelList&, Foam::label) const
    in file meshRefinement/meshRefinement.C at line 515
    Did not visit some faces, e.g. face 0 at (0.225 0.2375 -0.73125)
Keeping all cells containing inside points
Selected for keeping : 1904990 cells.
Edge intersection testing:
    Number of edges             : 6403806
    Number of edges to retest   : 589218
    Number of intersected edges : 625830

Shell refinement iteration 0
----------------------------

Marked for refinement due to distance to explicit features : 0 cells.
Marked for refinement due to refinement shells             : 25191 cells.
Determined cells to refine in = 13.95 s
Selected for internal refinement : 123641 cells (out of 1904990)
Edge intersection testing:
    Number of edges             : 9099096
    Number of edges to retest   : 5158665
    Number of intersected edges : 691746
Refined mesh in = 17.56 s
After refinement shell refinement iteration 0 : cells:2770477  faces:9099096  points:3563670
Cells per refinement level:
    0	64032
    1	126432
    2	6752
    3	17944
    4	68472
    5	83691
    6	454097
    7	1432376
    8	317250
    9	199431

Shell refinement iteration 1
----------------------------

No cells marked for refinement since reached limit 2000000.
Determined cells to refine in = 2.4 s
Selected for internal refinement : 29053 cells (out of 2770477)
Edge intersection testing:
    Number of edges             : 9740058
    Number of edges to retest   : 2017520
    Number of intersected edges : 722194
Refined mesh in = 15.1 s
After refinement shell refinement iteration 1 : cells:2973848  faces:9740058  points:3797765
Cells per refinement level:
    0	64032
    1	126340
    2	7318
    3	19297
    4	67349
    5	90248
    6	474117
    7	1446193
    8	385707
    9	293247

Shell refinement iteration 2
----------------------------

No cells marked for refinement since reached limit 2000000.
Determined cells to refine in = 2.56 s
Selected for internal refinement : 4124 cells (out of 2973848)
Edge intersection testing:
    Number of edges             : 9829890
    Number of edges to retest   : 345628
    Number of intersected edges : 725324
Refined mesh in = 13.08 s
After refinement shell refinement iteration 2 : cells:3002716  faces:9829890  points:3829703
Cells per refinement level:
    0	64032
    1	126340
    2	7318
    3	19289
    4	66986
    5	93416
    6	475399
    7	1450299
    8	396558
    9	303079

Shell refinement iteration 3
----------------------------

No cells marked for refinement since reached limit 2000000.
Determined cells to refine in = 2.59 s
Selected for internal refinement : 733 cells (out of 3002716)
Edge intersection testing:
    Number of edges             : 9845973
    Number of edges to retest   : 59259
    Number of intersected edges : 725987
Refined mesh in = 12.48 s
After refinement shell refinement iteration 3 : cells:3007847  faces:9845973  points:3835504
Cells per refinement level:
    0	64032
    1	126340
    2	7318
    3	19286
    4	66960
    5	93719
    6	476046
    7	1451207
    8	397220
    9	305719

Shell refinement iteration 4
----------------------------

No cells marked for refinement since reached limit 2000000.
Determined cells to refine in = 2.59 s
Selected for internal refinement : 195 cells (out of 3007847)
Edge intersection testing:
    Number of edges             : 9850296
    Number of edges to retest   : 15056
    Number of intersected edges : 726184
Refined mesh in = 12.35 s
After refinement shell refinement iteration 4 : cells:3009212  faces:9850296  points:3837090
Cells per refinement level:
    0	64032
    1	126340
    2	7318
    3	19285
    4	66956
    5	93792
    6	476223
    7	1451232
    8	397347
    9	306687

Shell refinement iteration 5
----------------------------

No cells marked for refinement since reached limit 2000000.
Determined cells to refine in = 2.59 s
Selected for internal refinement : 67 cells (out of 3009212)
Edge intersection testing:
    Number of edges             : 9851778
    Number of edges to retest   : 4713
    Number of intersected edges : 726261
Refined mesh in = 12.22 s
After refinement shell refinement iteration 5 : cells:3009681  faces:9851778  points:3837627
Cells per refinement level:
    0	64032
    1	126340
    2	7318
    3	19284
    4	66962
    5	93808
    6	476223
    7	1451218
    8	397409
    9	307087

Shell refinement iteration 6
----------------------------

No cells marked for refinement since reached limit 2000000.
Determined cells to refine in = 2.63 s
Selected for internal refinement : 20 cells (out of 3009681)
Stopping refining since too few cells selected.


Dangling coarse cells refinement iteration 0
--------------------------------------------

Determined cells to refine in = 0.14 s
Selected for refinement : 45 cells (out of 3009681)
Edge intersection testing:
    Number of edges             : 9852453
    Number of edges to retest   : 5568
    Number of intersected edges : 726243
Refined mesh in = 12.17 s
After refinement coarse cell refinement iteration 0 : cells:3009996  faces:9852453  points:3837717
Cells per refinement level:
    0	64032
    1	126340
    2	7318
    3	19284
    4	66962
    5	93807
    6	476230
    7	1451195
    8	397645
    9	307183

Dangling coarse cells refinement iteration 1
--------------------------------------------

Determined cells to refine in = 0.16 s
Selected for refinement : 1 cells (out of 3009996)
Stopping refining since too few cells selected.


Dangling coarse cells refinement iteration 0
--------------------------------------------

Determined cells to refine in = 0.14 s
Selected for refinement : 2 cells (out of 3009996)
Edge intersection testing:
    Number of edges             : 9852477
    Number of edges to retest   : 264
    Number of intersected edges : 726239
Refined mesh in = 12.13 s
After refinement coarse cell refinement iteration 0 : cells:3010010  faces:9852477  points:3837719
Cells per refinement level:
    0	64032
    1	126340
    2	7318
    3	19284
    4	66962
    5	93807
    6	476230
    7	1451193
    8	397661
    9	307183

Dangling coarse cells refinement iteration 1
--------------------------------------------

Determined cells to refine in = 0.15 s
Selected for refinement : 0 cells (out of 3010010)
Stopping refining since too few cells selected.


Refinement transition refinement iteration 0
--------------------------------------------

Determined cells to refine in = 0.24 s
Selected for refinement : 161 cells (out of 3010010)
Edge intersection testing:
    Number of edges             : 9855846
    Number of edges to retest   : 17415
    Number of intersected edges : 726431
Refined mesh in = 12.21 s
After refinement interface cell refinement iteration 0 : cells:3011137  faces:9855846  points:3838661
Cells per refinement level:
    0	64032
    1	126340
    2	7318
    3	19284
    4	66962
    5	93806
    6	476237
    7	1451127
    8	398168
    9	307863

Refinement transition refinement iteration 1
--------------------------------------------

Determined cells to refine in = 0.26 s
Selected for refinement : 2 cells (out of 3011137)
Stopping refining since too few cells selected.


Splitting mesh at surface intersections
---------------------------------------

Introducing baffles for 726431 faces that are intersected by the surface.

Setting cellZones according to locationsInMesh:
Location : (0.001 0.001 -0.2999)
    cellZone : none

For cellZone none found point (0.001 0.001 -0.2999) in global region 0 out of 2 regions.
Edge intersection testing:
    Number of edges             : 10582277
    Number of edges to retest   : 4811474
    Number of intersected edges : 1438454
Created baffles in = 15.1 s


After introducing baffles : cells:3011137  faces:10582277  points:3838661
Cells per refinement level:
    0	64032
    1	126340
    2	7318
    3	19284
    4	66962
    5	93806
    6	476237
    7	1451127
    8	398168
    9	307863

Introducing baffles to block off problem cells
----------------------------------------------

markFacesOnProblemCells : marked 1112291 additional internal faces to be converted into baffles.
Analyzed problem cells in = 10.3 s


Introducing baffles to delete problem cells.

Edge intersection testing:
    Number of edges             : 11694568
    Number of edges to retest   : 3565902
    Number of intersected edges : 1438887
Created baffles in = 12.59 s


After introducing baffles : cells:3011137  faces:11694568  points:3838661
Cells per refinement level:
    0	64032
    1	126340
    2	7318
    3	19284
    4	66962
    5	93806
    6	476237
    7	1451127
    8	398168
    9	307863
Setting cellZones according to locationsInMesh:
Location : (0.001 0.001 -0.2999)
    cellZone : none

For cellZone none found point (0.001 0.001 -0.2999) in global region 0 out of 529557 regions.
Edge intersection testing:
    Number of edges             : 11694568
    Number of edges to retest   : 5600786
    Number of intersected edges : 1438887

Remove unreachable sections of mesh
-----------------------------------

Keeping all cells containing points 1((0.001 0.001 -0.2999))
Selected for keeping : 2175308 cells.
Edge intersection testing:
    Number of edges             : 7316431
    Number of edges to retest   : 0
    Number of intersected edges : 718419
Split mesh in = 29.48 s


After subsetting : cells:2175308  faces:7316431  points:2976349
Cells per refinement level:
    0	64032
    1	126340
    2	7318
    3	19284
    4	66962
    5	92674
    6	386507
    7	1012158
    8	240367
    9	159666

Introducing zones for interfaces
--------------------------------

Setting cellZones according to locationsInMesh:
Location : (0.001 0.001 -0.2999)
    cellZone : none

For cellZone none found point (0.001 0.001 -0.2999) in global region 0 out of 1 regions.
Setting faceZones according to neighbouring cellZones:

Edge intersection testing:
    Number of edges             : 7316431
    Number of edges to retest   : 0
    Number of intersected edges : 718419

Handling cells with snap problems
---------------------------------

Introducing baffles for 718419 faces that are intersected by the surface.

Setting cellZones according to locationsInMesh:
Location : (0.001 0.001 -0.2999)
    cellZone : none

For cellZone none found point (0.001 0.001 -0.2999) in global region 0 out of 1 regions.
Edge intersection testing:
    Number of edges             : 7316431
    Number of edges to retest   : 2408235
    Number of intersected edges : 718419
Created baffles in = 18.38 s


After introducing baffles : cells:2175308  faces:7316431  points:2976349
Cells per refinement level:
    0	64032
    1	126340
    2	7318
    3	19284
    4	66962
    5	92674
    6	386507
    7	1012158
    8	240367
    9	159666

Introducing baffles to block off problem cells
----------------------------------------------

markFacesOnProblemCells : marked 0 additional internal faces to be converted into baffles.
Analyzed problem cells in = 6.94 s


Introducing baffles to delete problem cells.

Created baffles in = 0.7 s


After introducing baffles : cells:2175308  faces:7316431  points:2976349
Cells per refinement level:
    0	64032
    1	126340
    2	7318
    3	19284
    4	66962
    5	92674
    6	386507
    7	1012158
    8	240367
    9	159666
Setting cellZones according to locationsInMesh:
Location : (0.001 0.001 -0.2999)
    cellZone : none

For cellZone none found point (0.001 0.001 -0.2999) in global region 0 out of 1 regions.
Edge intersection testing:
    Number of edges             : 7316431
    Number of edges to retest   : 2408235
    Number of intersected edges : 718419

Remove unreachable sections of mesh
-----------------------------------

Split mesh in = 11.59 s


After subsetting : cells:2175308  faces:7316431  points:2976349
Cells per refinement level:
    0	64032
    1	126340
    2	7318
    3	19284
    4	66962
    5	92674
    6	386507
    7	1012158
    8	240367
    9	159666

Merge free-standing baffles
---------------------------

freeStandingBaffles : detected 73 free-standing baffles out of 73

freeStandingBaffles : detected 64 planar (within 10 degrees) free-standing baffles out of 73

Detected free-standing baffles : 64
Edge intersection testing:
    Number of edges             : 7316367
    Number of edges to retest   : 64
    Number of intersected edges : 718355

Introducing baffles to block off problem cells
----------------------------------------------

markFacesOnProblemCells : marked 0 additional internal faces to be converted into baffles.
Analyzed problem cells in = 14.64 s


Introducing baffles to delete problem cells.

Created baffles in = 0.58 s


After introducing baffles : cells:2175308  faces:7316367  points:2976349
Cells per refinement level:
    0	64032
    1	126340
    2	7318
    3	19284
    4	66962
    5	92674
    6	386507
    7	1012158
    8	240367
    9	159666

Remove unreachable sections of mesh
-----------------------------------

Merged free-standing baffles in = 1.99 s


dupNonManifoldPoints : Found : 40 non-manifold points (out of 2976349)
Edge intersection testing:
    Number of edges             : 7316367
    Number of edges to retest   : 0
    Number of intersected edges : 718355
Detected unsplittable baffles : 0

Merge refined boundary faces
----------------------------

Merging 5251 sets of faces.

Edge intersection testing:
    Number of edges             : 7307418
    Number of edges to retest   : 42855
    Number of intersected edges : 709490

Undo iteration 0
----------------
Checking faces in error :
    non-orthogonality > 65  degrees                        : 0
    faces with face pyramid volume < -1e-30                 : 0
    faces with face-decomposition tet quality < 1e-15      : 0
    faces with concavity > 80  degrees                     : 0
    faces with area < 1e-13 m^2                            : 0
    faces with skewness > 4   (internal) or 20  (boundary) : 0
    faces with interpolation weights (0..1)  < 0.02        : 0
    faces with volume ratio of neighbour cells < 0.01      : 0
    faces with face twist < 0.02                           : 0
    faces with triangle twist < 0.02                       : 0
    faces on cells with determinant < 0.001                : 0

Merging all points on surface that
- are used by only two boundary faces and
- make an angle with a cosine of more than 0.707107.

Removing 7223 straight edge points ...

Edge intersection testing:
    Number of edges             : 7307418
    Number of edges to retest   : 54786
    Number of intersected edges : 709490

Undo iteration 0
----------------
Checking faces in error :
    non-orthogonality > 65  degrees                        : 0
    faces with face pyramid volume < -1e-30                 : 0
    faces with face-decomposition tet quality < 1e-15      : 0
    faces with concavity > 80  degrees                     : 0
    faces with area < 1e-13 m^2                            : 0
    faces with skewness > 4   (internal) or 20  (boundary) : 0
    faces with interpolation weights (0..1)  < 0.02        : 0
    faces with volume ratio of neighbour cells < 0.01      : 0
    faces with face twist < 0.02                           : 0
    faces with triangle twist < 0.02                       : 0
    faces on cells with determinant < 0.001                : 0
Refined mesh : cells:2175308  faces:7307418  points:2967317
Cells per refinement level:
    0	64032
    1	126340
    2	7318
    3	19284
    4	66962
    5	92674
    6	386507
    7	1012158
    8	240367
    9	159666
Writing mesh to time constant
Wrote mesh in = 0.43 s.
Mesh refined in = 347.93 s.

Morphing phase
--------------

Duplicating 0 points on faceZones of type boundary
Snapping to features in 10 iterations ...
Constructing mesh displacer ...
Using mesh parameters 
{
    minFaceWeight   0.02;
    maxNonOrtho     65;
    maxBoundarySkewness 20;
    maxInternalSkewness 4;
    maxConcave      80;
    minVol          -1e-30;
    minTetQuality   1e-15;
    minVolRatio     0.01;
    nSmoothScale    4;
    errorReduction  0.75;
    minArea         1e-13;
    minDeterminant  0.001;
    minTwist        0.02;
    maxAspectRatio  1000;
    minPyramidVol   1e-13;
    minTriangleTwist 0.02;
}


Checking initial mesh ...
Checking faces in error :
    non-orthogonality > 65  degrees                        : 0
    faces with face pyramid volume < -1e-30                 : 0
    faces with face-decomposition tet quality < 1e-15      : 0
    faces with concavity > 80  degrees                     : 0
    faces with area < 1e-13 m^2                            : 0
    faces with skewness > 4   (internal) or 20  (boundary) : 0
    faces with interpolation weights (0..1)  < 0.02        : 0
    faces with volume ratio of neighbour cells < 0.01      : 0
    faces with face twist < 0.02                           : 0
    faces with triangle twist < 0.02                       : 0
    faces on cells with determinant < 0.001                : 0
Detected 0 illegal faces (concave, zero area or negative cell pyramid volume)
Checked initial mesh in = 57.76 s


Smoothing patch points ...
Smoothing iteration 0
Found 66 non-manifold point(s).

Scaling iteration 0
Moving mesh using displacement scaling : min:1  max:1
Checking faces in error :
    non-orthogonality > 65  degrees                        : 0
    faces with face pyramid volume < -1e-30                 : 0
    faces with face-decomposition tet quality < 1e-15      : 0
    faces with concavity > 80  degrees                     : 0
    faces with area < 1e-13 m^2                            : 0
    faces with skewness > 4   (internal) or 20  (boundary) : 0
    faces with interpolation weights (0..1)  < 0.02        : 0
    faces with volume ratio of neighbour cells < 0.01      : 0
    faces with face twist < 0.02                           : 0
    faces with triangle twist < 0.02                       : 1
    faces on cells with determinant < 0.001                : 0

Scaling iteration 1
Moving mesh using displacement scaling : min:0.75  max:1
Checking faces in error :
    non-orthogonality > 65  degrees                        : 0
    faces with face pyramid volume < -1e-30                 : 0
    faces with face-decomposition tet quality < 1e-15      : 0
    faces with concavity > 80  degrees                     : 0
    faces with area < 1e-13 m^2                            : 0
    faces with skewness > 4   (internal) or 20  (boundary) : 0
    faces with interpolation weights (0..1)  < 0.02        : 0
    faces with volume ratio of neighbour cells < 0.01      : 0
    faces with face twist < 0.02                           : 0
    faces with triangle twist < 0.02                       : 0
    faces on cells with determinant < 0.001                : 0
Successfully moved mesh

Smoothing iteration 1
Found 0 non-manifold point(s).

Scaling iteration 0
Moving mesh using displacement scaling : min:1  max:1
Checking faces in error :
    non-orthogonality > 65  degrees                        : 0
    faces with face pyramid volume < -1e-30                 : 0
    faces with face-decomposition tet quality < 1e-15      : 1
    faces with concavity > 80  degrees                     : 0
    faces with area < 1e-13 m^2                            : 0
    faces with skewness > 4   (internal) or 20  (boundary) : 0
    faces with interpolation weights (0..1)  < 0.02        : 0
    faces with volume ratio of neighbour cells < 0.01      : 0
    faces with face twist < 0.02                           : 0
    faces with triangle twist < 0.02                       : 0
    faces on cells with determinant < 0.001                : 0

Scaling iteration 1
Moving mesh using displacement scaling : min:0.75  max:1
Checking faces in error :
    non-orthogonality > 65  degrees                        : 0
    faces with face pyramid volume < -1e-30                 : 0
    faces with face-decomposition tet quality < 1e-15      : 1
    faces with concavity > 80  degrees                     : 0
    faces with area < 1e-13 m^2                            : 0
    faces with skewness > 4   (internal) or 20  (boundary) : 0
    faces with interpolation weights (0..1)  < 0.02        : 0
    faces with volume ratio of neighbour cells < 0.01      : 0
    faces with face twist < 0.02                           : 0
    faces with triangle twist < 0.02                       : 0
    faces on cells with determinant < 0.001                : 0

Scaling iteration 2
Moving mesh using displacement scaling : min:0.5625  max:1
Checking faces in error :
    non-orthogonality > 65  degrees                        : 0
    faces with face pyramid volume < -1e-30                 : 0
    faces with face-decomposition tet quality < 1e-15      : 0
    faces with concavity > 80  degrees                     : 0
    faces with area < 1e-13 m^2                            : 0
    faces with skewness > 4   (internal) or 20  (boundary) : 0
    faces with interpolation weights (0..1)  < 0.02        : 0
    faces with volume ratio of neighbour cells < 0.01      : 0
    faces with face twist < 0.02                           : 0
    faces with triangle twist < 0.02                       : 0
    faces on cells with determinant < 0.001                : 0
Successfully moved mesh

Smoothing iteration 2
Found 0 non-manifold point(s).

Scaling iteration 0
Moving mesh using displacement scaling : min:1  max:1
Checking faces in error :
    non-orthogonality > 65  degrees                        : 0
    faces with face pyramid volume < -1e-30                 : 0
    faces with face-decomposition tet quality < 1e-15      : 21
    faces with concavity > 80  degrees                     : 0
    faces with area < 1e-13 m^2                            : 0
    faces with skewness > 4   (internal) or 20  (boundary) : 0
    faces with interpolation weights (0..1)  < 0.02        : 0
    faces with volume ratio of neighbour cells < 0.01      : 0
    faces with face twist < 0.02                           : 0
    faces with triangle twist < 0.02                       : 0
    faces on cells with determinant < 0.001                : 0

Scaling iteration 1
Moving mesh using displacement scaling : min:0.75  max:1
Checking faces in error :
    non-orthogonality > 65  degrees                        : 0
    faces with face pyramid volume < -1e-30                 : 0
    faces with face-decomposition tet quality < 1e-15      : 7
    faces with concavity > 80  degrees                     : 0
    faces with area < 1e-13 m^2                            : 0
    faces with skewness > 4   (internal) or 20  (boundary) : 0
    faces with interpolation weights (0..1)  < 0.02        : 0
    faces with volume ratio of neighbour cells < 0.01      : 0
    faces with face twist < 0.02                           : 0
    faces with triangle twist < 0.02                       : 0
    faces on cells with determinant < 0.001                : 0

Scaling iteration 2
Moving mesh using displacement scaling : min:0.5625  max:1
Checking faces in error :
    non-orthogonality > 65  degrees                        : 0
    faces with face pyramid volume < -1e-30                 : 0
    faces with face-decomposition tet quality < 1e-15      : 4
    faces with concavity > 80  degrees                     : 0
    faces with area < 1e-13 m^2                            : 0
    faces with skewness > 4   (internal) or 20  (boundary) : 0
    faces with interpolation weights (0..1)  < 0.02        : 0
    faces with volume ratio of neighbour cells < 0.01      : 0
    faces with face twist < 0.02                           : 0
    faces with triangle twist < 0.02                       : 0
    faces on cells with determinant < 0.001                : 0

Scaling iteration 3
Moving mesh using displacement scaling : min:0.421875  max:1
Checking faces in error :
    non-orthogonality > 65  degrees                        : 0
    faces with face pyramid volume < -1e-30                 : 0
    faces with face-decomposition tet quality < 1e-15      : 1
    faces with concavity > 80  degrees                     : 0
    faces with area < 1e-13 m^2                            : 0
    faces with skewness > 4   (internal) or 20  (boundary) : 0
    faces with interpolation weights (0..1)  < 0.02        : 0
    faces with volume ratio of neighbour cells < 0.01      : 0
    faces with face twist < 0.02                           : 0
    faces with triangle twist < 0.02                       : 0
    faces on cells with determinant < 0.001                : 0

Scaling iteration 4
Moving mesh using displacement scaling : min:0.316406  max:1
Checking faces in error :
    non-orthogonality > 65  degrees                        : 0
    faces with face pyramid volume < -1e-30                 : 0
    faces with face-decomposition tet quality < 1e-15      : 1
    faces with concavity > 80  degrees                     : 0
    faces with area < 1e-13 m^2                            : 0
    faces with skewness > 4   (internal) or 20  (boundary) : 0
    faces with interpolation weights (0..1)  < 0.02        : 0
    faces with volume ratio of neighbour cells < 0.01      : 0
    faces with face twist < 0.02                           : 0
    faces with triangle twist < 0.02                       : 0
    faces on cells with determinant < 0.001                : 0

Scaling iteration 5
Moving mesh using displacement scaling : min:0.237305  max:1
Checking faces in error :
    non-orthogonality > 65  degrees                        : 0
    faces with face pyramid volume < -1e-30                 : 0
    faces with face-decomposition tet quality < 1e-15      : 1
    faces with concavity > 80  degrees                     : 0
    faces with area < 1e-13 m^2                            : 0
    faces with skewness > 4   (internal) or 20  (boundary) : 0
    faces with interpolation weights (0..1)  < 0.02        : 0
    faces with volume ratio of neighbour cells < 0.01      : 0
    faces with face twist < 0.02                           : 0
    faces with triangle twist < 0.02                       : 0
    faces on cells with determinant < 0.001                : 0

Scaling iteration 6
Moving mesh using displacement scaling : min:0.177979  max:1
Checking faces in error :
    non-orthogonality > 65  degrees                        : 0
    faces with face pyramid volume < -1e-30                 : 0
    faces with face-decomposition tet quality < 1e-15      : 1
    faces with concavity > 80  degrees                     : 0
    faces with area < 1e-13 m^2                            : 0
    faces with skewness > 4   (internal) or 20  (boundary) : 0
    faces with interpolation weights (0..1)  < 0.02        : 0
    faces with volume ratio of neighbour cells < 0.01      : 0
    faces with face twist < 0.02                           : 0
    faces with triangle twist < 0.02                       : 0
    faces on cells with determinant < 0.001                : 0

Scaling iteration 7
Moving mesh using displacement scaling : min:0.133484  max:1
Checking faces in error :
    non-orthogonality > 65  degrees                        : 0
    faces with face pyramid volume < -1e-30                 : 0
    faces with face-decomposition tet quality < 1e-15      : 1
    faces with concavity > 80  degrees                     : 0
    faces with area < 1e-13 m^2                            : 0
    faces with skewness > 4   (internal) or 20  (boundary) : 0
    faces with interpolation weights (0..1)  < 0.02        : 0
    faces with volume ratio of neighbour cells < 0.01      : 0
    faces with face twist < 0.02                           : 0
    faces with triangle twist < 0.02                       : 0
    faces on cells with determinant < 0.001                : 0

Scaling iteration 8
Moving mesh using displacement scaling : min:0.100113  max:1
Checking faces in error :
    non-orthogonality > 65  degrees                        : 0
    faces with face pyramid volume < -1e-30                 : 0
    faces with face-decomposition tet quality < 1e-15      : 1
    faces with concavity > 80  degrees                     : 0
    faces with area < 1e-13 m^2                            : 0
    faces with skewness > 4   (internal) or 20  (boundary) : 0
    faces with interpolation weights (0..1)  < 0.02        : 0
    faces with volume ratio of neighbour cells < 0.01      : 0
    faces with face twist < 0.02                           : 0
    faces with triangle twist < 0.02                       : 0
    faces on cells with determinant < 0.001                : 0

Scaling iteration 9
Moving mesh using displacement scaling : min:0.0750847  max:1
Checking faces in error :
    non-orthogonality > 65  degrees                        : 0
    faces with face pyramid volume < -1e-30                 : 0
    faces with face-decomposition tet quality < 1e-15      : 0
    faces with concavity > 80  degrees                     : 0
    faces with area < 1e-13 m^2                            : 0
    faces with skewness > 4   (internal) or 20  (boundary) : 0
    faces with interpolation weights (0..1)  < 0.02        : 0
    faces with volume ratio of neighbour cells < 0.01      : 0
    faces with face twist < 0.02                           : 0
    faces with triangle twist < 0.02                       : 0
    faces on cells with determinant < 0.001                : 0
Successfully moved mesh

Smoothing iteration 3
Found 0 non-manifold point(s).

Scaling iteration 0
Moving mesh using displacement scaling : min:1  max:1
Checking faces in error :
    non-orthogonality > 65  degrees                        : 0
    faces with face pyramid volume < -1e-30                 : 0
    faces with face-decomposition tet quality < 1e-15      : 80
    faces with concavity > 80  degrees                     : 0
    faces with area < 1e-13 m^2                            : 0
    faces with skewness > 4   (internal) or 20  (boundary) : 0
    faces with interpolation weights (0..1)  < 0.02        : 0
    faces with volume ratio of neighbour cells < 0.01      : 0
    faces with face twist < 0.02                           : 0
    faces with triangle twist < 0.02                       : 0
    faces on cells with determinant < 0.001                : 0

Scaling iteration 1
Moving mesh using displacement scaling : min:0.75  max:1
Checking faces in error :
    non-orthogonality > 65  degrees                        : 0
    faces with face pyramid volume < -1e-30                 : 0
    faces with face-decomposition tet quality < 1e-15      : 76
    faces with concavity > 80  degrees                     : 0
    faces with area < 1e-13 m^2                            : 0
    faces with skewness > 4   (internal) or 20  (boundary) : 0
    faces with interpolation weights (0..1)  < 0.02        : 0
    faces with volume ratio of neighbour cells < 0.01      : 0
    faces with face twist < 0.02                           : 0
    faces with triangle twist < 0.02                       : 0
    faces on cells with determinant < 0.001                : 0

Scaling iteration 2
Moving mesh using displacement scaling : min:0.5625  max:1
Checking faces in error :
    non-orthogonality > 65  degrees                        : 0
    faces with face pyramid volume < -1e-30                 : 0
    faces with face-decomposition tet quality < 1e-15      : 75
    faces with concavity > 80  degrees                     : 0
    faces with area < 1e-13 m^2                            : 0
    faces with skewness > 4   (internal) or 20  (boundary) : 0
    faces with interpolation weights (0..1)  < 0.02        : 0
    faces with volume ratio of neighbour cells < 0.01      : 0
    faces with face twist < 0.02                           : 0
    faces with triangle twist < 0.02                       : 0
    faces on cells with determinant < 0.001                : 0

Scaling iteration 3
Moving mesh using displacement scaling : min:0.421875  max:1
Checking faces in error :
    non-orthogonality > 65  degrees                        : 0
    faces with face pyramid volume < -1e-30                 : 0
    faces with face-decomposition tet quality < 1e-15      : 72
    faces with concavity > 80  degrees                     : 0
    faces with area < 1e-13 m^2                            : 0
    faces with skewness > 4   (internal) or 20  (boundary) : 0
    faces with interpolation weights (0..1)  < 0.02        : 0
    faces with volume ratio of neighbour cells < 0.01      : 0
    faces with face twist < 0.02                           : 0
    faces with triangle twist < 0.02                       : 0
    faces on cells with determinant < 0.001                : 0

Scaling iteration 4
Moving mesh using displacement scaling : min:0.316406  max:1
Checking faces in error :
    non-orthogonality > 65  degrees                        : 0
    faces with face pyramid volume < -1e-30                 : 0
    faces with face-decomposition tet quality < 1e-15      : 70
    faces with concavity > 80  degrees                     : 0
    faces with area < 1e-13 m^2                            : 0
    faces with skewness > 4   (internal) or 20  (boundary) : 0
    faces with interpolation weights (0..1)  < 0.02        : 0
    faces with volume ratio of neighbour cells < 0.01      : 0
    faces with face twist < 0.02                           : 0
    faces with triangle twist < 0.02                       : 0
    faces on cells with determinant < 0.001                : 0

Scaling iteration 5
Moving mesh using displacement scaling : min:0.237305  max:1
Checking faces in error :
    non-orthogonality > 65  degrees                        : 0
    faces with face pyramid volume < -1e-30                 : 0
    faces with face-decomposition tet quality < 1e-15      : 61
    faces with concavity > 80  degrees                     : 0
    faces with area < 1e-13 m^2                            : 0
    faces with skewness > 4   (internal) or 20  (boundary) : 0
    faces with interpolation weights (0..1)  < 0.02        : 0
    faces with volume ratio of neighbour cells < 0.01      : 0
    faces with face twist < 0.02                           : 0
    faces with triangle twist < 0.02                       : 0
    faces on cells with determinant < 0.001                : 0

Scaling iteration 6
Moving mesh using displacement scaling : min:0.177979  max:1
Checking faces in error :
    non-orthogonality > 65  degrees                        : 0
    faces with face pyramid volume < -1e-30                 : 0
    faces with face-decomposition tet quality < 1e-15      : 55
    faces with concavity > 80  degrees                     : 0
    faces with area < 1e-13 m^2                            : 0
    faces with skewness > 4   (internal) or 20  (boundary) : 0
    faces with interpolation weights (0..1)  < 0.02        : 0
    faces with volume ratio of neighbour cells < 0.01      : 0
    faces with face twist < 0.02                           : 0
    faces with triangle twist < 0.02                       : 0
    faces on cells with determinant < 0.001                : 0

Scaling iteration 7
Moving mesh using displacement scaling : min:0.133484  max:1
Checking faces in error :
    non-orthogonality > 65  degrees                        : 0
    faces with face pyramid volume < -1e-30                 : 0
    faces with face-decomposition tet quality < 1e-15      : 53
    faces with concavity > 80  degrees                     : 0
    faces with area < 1e-13 m^2                            : 0
    faces with skewness > 4   (internal) or 20  (boundary) : 0
    faces with interpolation weights (0..1)  < 0.02        : 0
    faces with volume ratio of neighbour cells < 0.01      : 0
    faces with face twist < 0.02                           : 0
    faces with triangle twist < 0.02                       : 0
    faces on cells with determinant < 0.001                : 0

Scaling iteration 8
Moving mesh using displacement scaling : min:0.100113  max:1
Checking faces in error :
    non-orthogonality > 65  degrees                        : 0
    faces with face pyramid volume < -1e-30                 : 0
    faces with face-decomposition tet quality < 1e-15      : 48
    faces with concavity > 80  degrees                     : 0
    faces with area < 1e-13 m^2                            : 0
    faces with skewness > 4   (internal) or 20  (boundary) : 0
    faces with interpolation weights (0..1)  < 0.02        : 0
    faces with volume ratio of neighbour cells < 0.01      : 0
    faces with face twist < 0.02                           : 0
    faces with triangle twist < 0.02                       : 0
    faces on cells with determinant < 0.001                : 0

Scaling iteration 9
Moving mesh using displacement scaling : min:0.0750847  max:1
Checking faces in error :
    non-orthogonality > 65  degrees                        : 0
    faces with face pyramid volume < -1e-30                 : 0
    faces with face-decomposition tet quality < 1e-15      : 44
    faces with concavity > 80  degrees                     : 0
    faces with area < 1e-13 m^2                            : 0
    faces with skewness > 4   (internal) or 20  (boundary) : 0
    faces with interpolation weights (0..1)  < 0.02        : 0
    faces with volume ratio of neighbour cells < 0.01      : 0
    faces with face twist < 0.02                           : 0
    faces with triangle twist < 0.02                       : 0
    faces on cells with determinant < 0.001                : 0

Scaling iteration 10
Displacement scaling for error reduction set to 0.
Moving mesh using displacement scaling : min:0.0563135  max:1
Checking faces in error :
    non-orthogonality > 65  degrees                        : 0
    faces with face pyramid volume < -1e-30                 : 0
    faces with face-decomposition tet quality < 1e-15      : 42
    faces with concavity > 80  degrees                     : 0
    faces with area < 1e-13 m^2                            : 0
    faces with skewness > 4   (internal) or 20  (boundary) : 0
    faces with interpolation weights (0..1)  < 0.02        : 0
    faces with volume ratio of neighbour cells < 0.01      : 0
    faces with face twist < 0.02                           : 0
    faces with triangle twist < 0.02                       : 0
    faces on cells with determinant < 0.001                : 0

Scaling iteration 11
Moving mesh using displacement scaling : min:0  max:1
Checking faces in error :
    non-orthogonality > 65  degrees                        : 0
    faces with face pyramid volume < -1e-30                 : 0
    faces with face-decomposition tet quality < 1e-15      : 0
    faces with concavity > 80  degrees                     : 0
    faces with area < 1e-13 m^2                            : 0
    faces with skewness > 4   (internal) or 20  (boundary) : 0
    faces with interpolation weights (0..1)  < 0.02        : 0
    faces with volume ratio of neighbour cells < 0.01      : 0
    faces with face twist < 0.02                           : 0
    faces with triangle twist < 0.02                       : 0
    faces on cells with determinant < 0.001                : 0
Successfully moved mesh

Smoothing iteration 4
Found 0 non-manifold point(s).

Scaling iteration 0
Moving mesh using displacement scaling : min:1  max:1
Checking faces in error :
    non-orthogonality > 65  degrees                        : 0
    faces with face pyramid volume < -1e-30                 : 0
    faces with face-decomposition tet quality < 1e-15      : 103
    faces with concavity > 80  degrees                     : 0
    faces with area < 1e-13 m^2                            : 0
    faces with skewness > 4   (internal) or 20  (boundary) : 0
    faces with interpolation weights (0..1)  < 0.02        : 0
    faces with volume ratio of neighbour cells < 0.01      : 0
    faces with face twist < 0.02                           : 0
    faces with triangle twist < 0.02                       : 0
    faces on cells with determinant < 0.001                : 0

Scaling iteration 1
Moving mesh using displacement scaling : min:0.75  max:1
Checking faces in error :
    non-orthogonality > 65  degrees                        : 0
    faces with face pyramid volume < -1e-30                 : 0
    faces with face-decomposition tet quality < 1e-15      : 98
    faces with concavity > 80  degrees                     : 0
    faces with area < 1e-13 m^2                            : 0
    faces with skewness > 4   (internal) or 20  (boundary) : 0
    faces with interpolation weights (0..1)  < 0.02        : 0
    faces with volume ratio of neighbour cells < 0.01      : 0
    faces with face twist < 0.02                           : 0
    faces with triangle twist < 0.02                       : 0
    faces on cells with determinant < 0.001                : 0

Scaling iteration 2
Moving mesh using displacement scaling : min:0.5625  max:1
Checking faces in error :
    non-orthogonality > 65  degrees                        : 0
    faces with face pyramid volume < -1e-30                 : 0
    faces with face-decomposition tet quality < 1e-15      : 97
    faces with concavity > 80  degrees                     : 0
    faces with area < 1e-13 m^2                            : 0
    faces with skewness > 4   (internal) or 20  (boundary) : 0
    faces with interpolation weights (0..1)  < 0.02        : 0
    faces with volume ratio of neighbour cells < 0.01      : 0
    faces with face twist < 0.02                           : 0
    faces with triangle twist < 0.02                       : 0
    faces on cells with determinant < 0.001                : 0

Scaling iteration 3
Moving mesh using displacement scaling : min:0.421875  max:1
Checking faces in error :
    non-orthogonality > 65  degrees                        : 0
    faces with face pyramid volume < -1e-30                 : 0
    faces with face-decomposition tet quality < 1e-15      : 94
    faces with concavity > 80  degrees                     : 0
    faces with area < 1e-13 m^2                            : 0
    faces with skewness > 4   (internal) or 20  (boundary) : 0
    faces with interpolation weights (0..1)  < 0.02        : 0
    faces with volume ratio of neighbour cells < 0.01      : 0
    faces with face twist < 0.02                           : 0
    faces with triangle twist < 0.02                       : 0
    faces on cells with determinant < 0.001                : 0

Scaling iteration 4
Moving mesh using displacement scaling : min:0.316406  max:1
Checking faces in error :
    non-orthogonality > 65  degrees                        : 0
    faces with face pyramid volume < -1e-30                 : 0
    faces with face-decomposition tet quality < 1e-15      : 94
    faces with concavity > 80  degrees                     : 0
    faces with area < 1e-13 m^2                            : 0
    faces with skewness > 4   (internal) or 20  (boundary) : 0
    faces with interpolation weights (0..1)  < 0.02        : 0
    faces with volume ratio of neighbour cells < 0.01      : 0
    faces with face twist < 0.02                           : 0
    faces with triangle twist < 0.02                       : 0
    faces on cells with determinant < 0.001                : 0

Scaling iteration 5
Moving mesh using displacement scaling : min:0.237305  max:1
Checking faces in error :
    non-orthogonality > 65  degrees                        : 0
    faces with face pyramid volume < -1e-30                 : 0
    faces with face-decomposition tet quality < 1e-15      : 92
    faces with concavity > 80  degrees                     : 0
    faces with area < 1e-13 m^2                            : 0
    faces with skewness > 4   (internal) or 20  (boundary) : 0
    faces with interpolation weights (0..1)  < 0.02        : 0
    faces with volume ratio of neighbour cells < 0.01      : 0
    faces with face twist < 0.02                           : 0
    faces with triangle twist < 0.02                       : 0
    faces on cells with determinant < 0.001                : 0

Scaling iteration 6
Moving mesh using displacement scaling : min:0.177979  max:1
Checking faces in error :
    non-orthogonality > 65  degrees                        : 0
    faces with face pyramid volume < -1e-30                 : 0
    faces with face-decomposition tet quality < 1e-15      : 89
    faces with concavity > 80  degrees                     : 0
    faces with area < 1e-13 m^2                            : 0
    faces with skewness > 4   (internal) or 20  (boundary) : 0
    faces with interpolation weights (0..1)  < 0.02        : 0
    faces with volume ratio of neighbour cells < 0.01      : 0
    faces with face twist < 0.02                           : 0
    faces with triangle twist < 0.02                       : 0
    faces on cells with determinant < 0.001                : 0

Scaling iteration 7
Moving mesh using displacement scaling : min:0.133484  max:1
Checking faces in error :
    non-orthogonality > 65  degrees                        : 0
    faces with face pyramid volume < -1e-30                 : 0
    faces with face-decomposition tet quality < 1e-15      : 87
    faces with concavity > 80  degrees                     : 0
    faces with area < 1e-13 m^2                            : 0
    faces with skewness > 4   (internal) or 20  (boundary) : 0
    faces with interpolation weights (0..1)  < 0.02        : 0
    faces with volume ratio of neighbour cells < 0.01      : 0
    faces with face twist < 0.02                           : 0
    faces with triangle twist < 0.02                       : 0
    faces on cells with determinant < 0.001                : 0

Scaling iteration 8
Moving mesh using displacement scaling : min:0.100113  max:1
Checking faces in error :
    non-orthogonality > 65  degrees                        : 0
    faces with face pyramid volume < -1e-30                 : 0
    faces with face-decomposition tet quality < 1e-15      : 87
    faces with concavity > 80  degrees                     : 0
    faces with area < 1e-13 m^2                            : 0
    faces with skewness > 4   (internal) or 20  (boundary) : 0
    faces with interpolation weights (0..1)  < 0.02        : 0
    faces with volume ratio of neighbour cells < 0.01      : 0
    faces with face twist < 0.02                           : 0
    faces with triangle twist < 0.02                       : 0
    faces on cells with determinant < 0.001                : 0

Scaling iteration 9
Moving mesh using displacement scaling : min:0.0750847  max:1
Checking faces in error :
    non-orthogonality > 65  degrees                        : 0
    faces with face pyramid volume < -1e-30                 : 0
    faces with face-decomposition tet quality < 1e-15      : 86
    faces with concavity > 80  degrees                     : 0
    faces with area < 1e-13 m^2                            : 0
    faces with skewness > 4   (internal) or 20  (boundary) : 0
    faces with interpolation weights (0..1)  < 0.02        : 0
    faces with volume ratio of neighbour cells < 0.01      : 0
    faces with face twist < 0.02                           : 0
    faces with triangle twist < 0.02                       : 0
    faces on cells with determinant < 0.001                : 0

Scaling iteration 10
Displacement scaling for error reduction set to 0.
Moving mesh using displacement scaling : min:0.0563135  max:1
Checking faces in error :
    non-orthogonality > 65  degrees                        : 0
    faces with face pyramid volume < -1e-30                 : 0
    faces with face-decomposition tet quality < 1e-15      : 86
    faces with concavity > 80  degrees                     : 0
    faces with area < 1e-13 m^2                            : 0
    faces with skewness > 4   (internal) or 20  (boundary) : 0
    faces with interpolation weights (0..1)  < 0.02        : 0
    faces with volume ratio of neighbour cells < 0.01      : 0
    faces with face twist < 0.02                           : 0
    faces with triangle twist < 0.02                       : 0
    faces on cells with determinant < 0.001                : 0

Scaling iteration 11
Moving mesh using displacement scaling : min:0  max:1
Checking faces in error :
    non-orthogonality > 65  degrees                        : 0
    faces with face pyramid volume < -1e-30                 : 0
    faces with face-decomposition tet quality < 1e-15      : 0
    faces with concavity > 80  degrees                     : 0
    faces with area < 1e-13 m^2                            : 0
    faces with skewness > 4   (internal) or 20  (boundary) : 0
    faces with interpolation weights (0..1)  < 0.02        : 0
    faces with volume ratio of neighbour cells < 0.01      : 0
    faces with face twist < 0.02                           : 0
    faces with triangle twist < 0.02                       : 0
    faces on cells with determinant < 0.001                : 0
Successfully moved mesh

Patch points smoothed in = 189.29 s



Morph iteration 0
-----------------
Calculating patchDisplacement as distance to nearest surface point ...
    non-zone points : attract to nearest of all non-zone surfaces
    zone points     : attract to zone surface only

Wanted displacement : average:5.29129e-05 min:6.25131e-11 max:0.000469674
Calculated surface displacement in = 0.63 s


Detecting near surfaces ...
Overriding nearest with intersection of close gaps at 0 out of 726636 points.
Overriding displacement on features :
   implicit features    : true
   explicit features    : false
   multi-patch features : true

Attraction:
    linear   : max:(-4.09348e-05 -8.12483e-05 0.000460778) avg:(3.86515e-07 7.44817e-07 8.07079e-08)
    feature  : max:(0.00215834 0.000811737 0.000419316) avg:(4.20059e-07 7.52325e-07 3.44682e-08)
Feature analysis : total master points :726636 of which attracted to :
    feature point   : 73
    feature edge    : 14794
    nearest surface : 711769
    rest            : 0

--> FOAM Warning : Displacement (-1.62041e-07 5.75797e-08 -2.19118e-07) at mesh point 90915 coord (-0.184375 -0.0242198 -0.0222934) points through the surrounding patch faces
Smoothing displacement ...
Iteration 0
Iteration 10
Iteration 20
Displacement smoothed in = 16.44 s


Moving mesh ...

Iteration 0
Moving mesh using displacement scaling : min:1  max:1
Checking faces in error :
    non-orthogonality > 65  degrees                        : 0
    faces with face pyramid volume < -1e-30                 : 0
    faces with face-decomposition tet quality < 1e-15      : 53
    faces with concavity > 80  degrees                     : 0
    faces with area < 1e-13 m^2                            : 0
    faces with skewness > 4   (internal) or 20  (boundary) : 0
    faces with interpolation weights (0..1)  < 0.02        : 0
    faces with volume ratio of neighbour cells < 0.01      : 0
    faces with face twist < 0.02                           : 0
    faces with triangle twist < 0.02                       : 0
    faces on cells with determinant < 0.001                : 0

Iteration 1
Moving mesh using displacement scaling : min:0.75  max:1
Checking faces in error :
    non-orthogonality > 65  degrees                        : 0
    faces with face pyramid volume < -1e-30                 : 0
    faces with face-decomposition tet quality < 1e-15      : 8
    faces with concavity > 80  degrees                     : 0
    faces with area < 1e-13 m^2                            : 0
    faces with skewness > 4   (internal) or 20  (boundary) : 0
    faces with interpolation weights (0..1)  < 0.02        : 0
    faces with volume ratio of neighbour cells < 0.01      : 0
    faces with face twist < 0.02                           : 0
    faces with triangle twist < 0.02                       : 0
    faces on cells with determinant < 0.001                : 0

Iteration 2
Moving mesh using displacement scaling : min:0.5625  max:1
Checking faces in error :
    non-orthogonality > 65  degrees                        : 0
    faces with face pyramid volume < -1e-30                 : 0
    faces with face-decomposition tet quality < 1e-15      : 1
    faces with concavity > 80  degrees                     : 0
    faces with area < 1e-13 m^2                            : 0
    faces with skewness > 4   (internal) or 20  (boundary) : 0
    faces with interpolation weights (0..1)  < 0.02        : 0
    faces with volume ratio of neighbour cells < 0.01      : 0
    faces with face twist < 0.02                           : 0
    faces with triangle twist < 0.02                       : 0
    faces on cells with determinant < 0.001                : 0

Iteration 3
Moving mesh using displacement scaling : min:0.421875  max:1
Checking faces in error :
    non-orthogonality > 65  degrees                        : 0
    faces with face pyramid volume < -1e-30                 : 0
    faces with face-decomposition tet quality < 1e-15      : 0
    faces with concavity > 80  degrees                     : 0
    faces with area < 1e-13 m^2                            : 0
    faces with skewness > 4   (internal) or 20  (boundary) : 0
    faces with interpolation weights (0..1)  < 0.02        : 0
    faces with volume ratio of neighbour cells < 0.01      : 0
    faces with face twist < 0.02                           : 0
    faces with triangle twist < 0.02                       : 0
    faces on cells with determinant < 0.001                : 0
Successfully moved mesh
Moved mesh in = 21.95 s



Morph iteration 1
-----------------
Calculating patchDisplacement as distance to nearest surface point ...
    non-zone points : attract to nearest of all non-zone surfaces
    zone points     : attract to zone surface only

Wanted displacement : average:4.85353e-05 min:9.19787e-11 max:0.000444383
Calculated surface displacement in = 0.63 s


Detecting near surfaces ...
Overriding nearest with intersection of close gaps at 0 out of 726636 points.
Overriding displacement on features :
   implicit features    : true
   explicit features    : false
   multi-patch features : true

Attraction:
    linear   : max:(-3.87306e-05 -7.68732e-05 0.000435966) avg:(3.43299e-07 6.77478e-07 7.49934e-08)
    feature  : max:(0.00215939 0.000808849 0.000419468) avg:(3.75625e-07 6.84294e-07 3.11898e-08)
Feature analysis : total master points :726636 of which attracted to :
    feature point   : 73
    feature edge    : 14796
    nearest surface : 711767
    rest            : 0

--> FOAM Warning : Displacement (-5.82758e-07 4.10821e-07 -5.00676e-07) at mesh point 90915 coord (-0.184375 -0.0242197 -0.0222937) points through the surrounding patch faces
Smoothing displacement ...
Iteration 0
Iteration 10
Iteration 20
Displacement smoothed in = 16.16 s


Moving mesh ...

Iteration 0
Moving mesh using displacement scaling : min:1  max:1
Checking faces in error :
    non-orthogonality > 65  degrees                        : 0
    faces with face pyramid volume < -1e-30                 : 0
    faces with face-decomposition tet quality < 1e-15      : 112
    faces with concavity > 80  degrees                     : 0
    faces with area < 1e-13 m^2                            : 0
    faces with skewness > 4   (internal) or 20  (boundary) : 0
    faces with interpolation weights (0..1)  < 0.02        : 0
    faces with volume ratio of neighbour cells < 0.01      : 0
    faces with face twist < 0.02                           : 0
    faces with triangle twist < 0.02                       : 1
    faces on cells with determinant < 0.001                : 0

Iteration 1
Moving mesh using displacement scaling : min:0.75  max:1
Checking faces in error :
    non-orthogonality > 65  degrees                        : 0
    faces with face pyramid volume < -1e-30                 : 0
    faces with face-decomposition tet quality < 1e-15      : 79
    faces with concavity > 80  degrees                     : 0
    faces with area < 1e-13 m^2                            : 0
    faces with skewness > 4   (internal) or 20  (boundary) : 0
    faces with interpolation weights (0..1)  < 0.02        : 0
    faces with volume ratio of neighbour cells < 0.01      : 0
    faces with face twist < 0.02                           : 0
    faces with triangle twist < 0.02                       : 1
    faces on cells with determinant < 0.001                : 0

Iteration 2
Moving mesh using displacement scaling : min:0.5625  max:1
Checking faces in error :
    non-orthogonality > 65  degrees                        : 0
    faces with face pyramid volume < -1e-30                 : 0
    faces with face-decomposition tet quality < 1e-15      : 18
    faces with concavity > 80  degrees                     : 0
    faces with area < 1e-13 m^2                            : 0
    faces with skewness > 4   (internal) or 20  (boundary) : 0
    faces with interpolation weights (0..1)  < 0.02        : 0
    faces with volume ratio of neighbour cells < 0.01      : 0
    faces with face twist < 0.02                           : 0
    faces with triangle twist < 0.02                       : 1
    faces on cells with determinant < 0.001                : 0

Iteration 3
Moving mesh using displacement scaling : min:0.421875  max:1
Checking faces in error :
    non-orthogonality > 65  degrees                        : 0
    faces with face pyramid volume < -1e-30                 : 0
    faces with face-decomposition tet quality < 1e-15      : 5
    faces with concavity > 80  degrees                     : 0
    faces with area < 1e-13 m^2                            : 0
    faces with skewness > 4   (internal) or 20  (boundary) : 0
    faces with interpolation weights (0..1)  < 0.02        : 0
    faces with volume ratio of neighbour cells < 0.01      : 0
    faces with face twist < 0.02                           : 0
    faces with triangle twist < 0.02                       : 1
    faces on cells with determinant < 0.001                : 0

Iteration 4
Moving mesh using displacement scaling : min:0.316406  max:1
Checking faces in error :
    non-orthogonality > 65  degrees                        : 0
    faces with face pyramid volume < -1e-30                 : 0
    faces with face-decomposition tet quality < 1e-15      : 3
    faces with concavity > 80  degrees                     : 0
    faces with area < 1e-13 m^2                            : 0
    faces with skewness > 4   (internal) or 20  (boundary) : 0
    faces with interpolation weights (0..1)  < 0.02        : 0
    faces with volume ratio of neighbour cells < 0.01      : 0
    faces with face twist < 0.02                           : 0
    faces with triangle twist < 0.02                       : 1
    faces on cells with determinant < 0.001                : 0

Iteration 5
Moving mesh using displacement scaling : min:0.237305  max:1
Checking faces in error :
    non-orthogonality > 65  degrees                        : 0
    faces with face pyramid volume < -1e-30                 : 0
    faces with face-decomposition tet quality < 1e-15      : 1
    faces with concavity > 80  degrees                     : 0
    faces with area < 1e-13 m^2                            : 0
    faces with skewness > 4   (internal) or 20  (boundary) : 0
    faces with interpolation weights (0..1)  < 0.02        : 0
    faces with volume ratio of neighbour cells < 0.01      : 0
    faces with face twist < 0.02                           : 0
    faces with triangle twist < 0.02                       : 0
    faces on cells with determinant < 0.001                : 0

Iteration 6
Moving mesh using displacement scaling : min:0.177979  max:1
Checking faces in error :
    non-orthogonality > 65  degrees                        : 0
    faces with face pyramid volume < -1e-30                 : 0
    faces with face-decomposition tet quality < 1e-15      : 1
    faces with concavity > 80  degrees                     : 0
    faces with area < 1e-13 m^2                            : 0
    faces with skewness > 4   (internal) or 20  (boundary) : 0
    faces with interpolation weights (0..1)  < 0.02        : 0
    faces with volume ratio of neighbour cells < 0.01      : 0
    faces with face twist < 0.02                           : 0
    faces with triangle twist < 0.02                       : 0
    faces on cells with determinant < 0.001                : 0

Iteration 7
Moving mesh using displacement scaling : min:0.133484  max:1
Checking faces in error :
    non-orthogonality > 65  degrees                        : 0
    faces with face pyramid volume < -1e-30                 : 0
    faces with face-decomposition tet quality < 1e-15      : 1
    faces with concavity > 80  degrees                     : 0
    faces with area < 1e-13 m^2                            : 0
[...]
   *There are 92 faces with ratio between projected and actual area < 0.8
    Minimum ratio (minimum flatness, maximum warpage) = 0.549774
  <<Writing 92 warped faces to set warpedFaces
    Cell determinant (wellposedness) : minimum: 0.000396712 average: 1.79782
 ***Cells with small determinant (< 0.001) found, number of cells: 4
  <<Writing 4 under-determined cells to set underdeterminedCells
 ***Concave cells (using face planes) found, number of cells: 176899
  <<Writing 176899 concave cells to set concaveCells
    Face interpolation weight : minimum: 0.0352338 average: 0.457166
 ***Faces with small interpolation weight (< 0.05) found, number of faces: 24
  <<Writing 24 faces with low interpolation weights to set lowWeightFaces
    Face volume ratio : minimum: 0.0108014 average: 0.784408
    Face volume ratio check OK.

Failed 3 mesh checks.

End

/*---------------------------------------------------------------------------*\
| =========                 |                                                 |
| \\      /  F ield         | OpenFOAM: The Open Source CFD Toolbox           |
|  \\    /   O peration     | Version:  2406                                  |
|   \\  /    A nd           | Website:  www.openfoam.com                      |
|    \\/     M anipulation  |                                                 |
\*---------------------------------------------------------------------------*/
Build  : _630d60de3b-20240620 OPENFOAM=2406 version=v2406
Arch   : "LSB;label=32;scalar=64"
Exec   : decomposePar
Date   : Nov 21 2025
Time   : 11:31:04
Host   : eu-comp015.cluster.local
PID    : 1705733
I/O    : uncollated
Case   : /gpfs/ts0/projects/Research_Project-129871/rj429/run/simple_run/10_240_-5
nProcs : 1
trapFpe: Floating point exception trapping enabled (FOAM_SIGFPE).
fileModificationChecking : Monitoring run-time modified files using timeStampMaster (fileModificationSkew 5, maxFileModificationPolls 20)
allowSystemOperations : Allowing user-supplied system call operations

// * * * * * * * * * * * * * * * * * * * * * * * * * * * * * * * * * * * * * //
Create time



Decomposing mesh

Create mesh

Calculating distribution of cells
Decomposition method scotch [16] (region region0)

Finished decomposition in 6.21 s

Calculating original mesh data

Distributing cells to processors

Distributing faces to processors

Distributing points to processors

Constructing processor meshes
Reading hexRef8 data : cellLevel
Reading hexRef8 data : pointLevel
Reading hexRef8 data : level0Edge

Processor 0
    Number of cells = 138550
    Number of points = 184720
    Number of faces shared with processor 1 = 2153
    Number of faces shared with processor 2 = 1409
    Number of faces shared with processor 4 = 785
    Number of faces shared with processor 5 = 1211
    Number of faces shared with processor 6 = 337
    Number of faces shared with processor 7 = 51
    Number of faces shared with processor 8 = 584
    Number of faces shared with processor 9 = 246
    Number of faces shared with processor 11 = 10
    Number of faces shared with processor 12 = 136
    Number of faces shared with processor 13 = 198
    Number of processor patches = 11
    Number of processor faces = 7120
    Number of boundary faces = 37441

Processor 1
    Number of cells = 139080
    Number of points = 187155
    Number of faces shared with processor 0 = 2153
    Number of faces shared with processor 2 = 632
    Number of faces shared with processor 3 = 1335
    Number of faces shared with processor 6 = 1076
    Number of faces shared with processor 7 = 1521
    Number of faces shared with processor 8 = 168
    Number of processor patches = 6
    Number of processor faces = 6885
    Number of boundary faces = 37991

Processor 2
    Number of cells = 137915
    Number of points = 184986
    Number of faces shared with processor 0 = 1409
    Number of faces shared with processor 1 = 632
    Number of faces shared with processor 3 = 2641
    Number of faces shared with processor 8 = 161
    Number of processor patches = 4
    Number of processor faces = 4843
    Number of boundary faces = 38863

Processor 3
    Number of cells = 138787
    Number of points = 187798
    Number of faces shared with processor 1 = 1335
    Number of faces shared with processor 2 = 2641
    Number of faces shared with processor 8 = 180
    Number of processor patches = 3
    Number of processor faces = 4156
    Number of boundary faces = 34925

Processor 4
    Number of cells = 137843
    Number of points = 186310
    Number of faces shared with processor 0 = 785
    Number of faces shared with processor 5 = 1219
    Number of faces shared with processor 6 = 1273
    Number of faces shared with processor 13 = 1670
    Number of processor patches = 4
    Number of processor faces = 4947
    Number of boundary faces = 39373

Processor 5
    Number of cells = 139911
    Number of points = 191060
    Number of faces shared with processor 0 = 1211
    Number of faces shared with processor 4 = 1219
    Number of faces shared with processor 6 = 887
    Number of faces shared with processor 7 = 1060
    Number of faces shared with processor 12 = 1096
    Number of faces shared with processor 13 = 174
    Number of processor patches = 6
    Number of processor faces = 5647
    Number of boundary faces = 39214

Processor 6
    Number of cells = 139537
    Number of points = 187213
    Number of faces shared with processor 0 = 337
    Number of faces shared with processor 1 = 1076
    Number of faces shared with processor 4 = 1273
    Number of faces shared with processor 5 = 887
    Number of faces shared with processor 7 = 1888
    Number of faces shared with processor 8 = 6
    Number of faces shared with processor 13 = 31
    Number of processor patches = 7
    Number of processor faces = 5498
    Number of boundary faces = 38527

Processor 7
    Number of cells = 140192
    Number of points = 191232
    Number of faces shared with processor 0 = 51
    Number of faces shared with processor 1 = 1521
    Number of faces shared with processor 5 = 1060
    Number of faces shared with processor 6 = 1888
    Number of faces shared with processor 8 = 89
    Number of faces shared with processor 11 = 56
    Number of faces shared with processor 12 = 30
    Number of faces shared with processor 13 = 25
    Number of processor patches = 8
    Number of processor faces = 4720
    Number of boundary faces = 37248

Processor 8
    Number of cells = 140627
    Number of points = 151934
    Number of faces shared with processor 0 = 584
    Number of faces shared with processor 1 = 168
    Number of faces shared with processor 2 = 161
    Number of faces shared with processor 3 = 180
    Number of faces shared with processor 6 = 6
    Number of faces shared with processor 7 = 89
    Number of faces shared with processor 9 = 4184
    Number of faces shared with processor 11 = 591
    Number of faces shared with processor 13 = 52
    Number of processor patches = 9
    Number of processor faces = 6015
    Number of boundary faces = 6593

Processor 9
    Number of cells = 140616
    Number of points = 181657
    Number of faces shared with processor 0 = 246
    Number of faces shared with processor 8 = 4184
    Number of faces shared with processor 10 = 1472
    Number of faces shared with processor 11 = 735
    Number of faces shared with processor 12 = 49
    Number of faces shared with processor 13 = 137
    Number of faces shared with processor 14 = 484
    Number of faces shared with processor 15 = 1130
    Number of processor patches = 8
    Number of processor faces = 8437
    Number of boundary faces = 22901

Processor 10
    Number of cells = 138099
    Number of points = 185907
    Number of faces shared with processor 9 = 1472
    Number of faces shared with processor 11 = 2255
    Number of faces shared with processor 13 = 26
    Number of faces shared with processor 15 = 952
    Number of processor patches = 4
    Number of processor faces = 4705
    Number of boundary faces = 38418

Processor 11
    Number of cells = 138762
    Number of points = 185681
    Number of faces shared with processor 0 = 10
    Number of faces shared with processor 7 = 56
    Number of faces shared with processor 8 = 591
    Number of faces shared with processor 9 = 735
    Number of faces shared with processor 10 = 2255
    Number of faces shared with processor 12 = 202
    Number of faces shared with processor 13 = 112
    Number of faces shared with processor 14 = 1269
    Number of faces shared with processor 15 = 711
    Number of processor patches = 9
    Number of processor faces = 5941
    Number of boundary faces = 37170

Processor 12
    Number of cells = 140219
    Number of points = 188829
    Number of faces shared with processor 0 = 136
    Number of faces shared with processor 5 = 1096
    Number of faces shared with processor 7 = 30
    Number of faces shared with processor 9 = 49
    Number of faces shared with processor 11 = 202
    Number of faces shared with processor 13 = 2393
    Number of faces shared with processor 14 = 1293
    Number of faces shared with processor 15 = 41
    Number of processor patches = 8
    Number of processor faces = 5240
    Number of boundary faces = 39323

Processor 13
    Number of cells = 138526
    Number of points = 185691
    Number of faces shared with processor 0 = 198
    Number of faces shared with processor 4 = 1670
    Number of faces shared with processor 5 = 174
    Number of faces shared with processor 6 = 31
    Number of faces shared with processor 7 = 25
    Number of faces shared with processor 8 = 52
    Number of faces shared with processor 9 = 137
    Number of faces shared with processor 10 = 26
    Number of faces shared with processor 11 = 112
    Number of faces shared with processor 12 = 2393
    Number of faces shared with processor 14 = 91
    Number of faces shared with processor 15 = 1238
    Number of processor patches = 12
    Number of processor faces = 6147
    Number of boundary faces = 38146

Processor 14
    Number of cells = 140135
    Number of points = 192637
    Number of faces shared with processor 9 = 484
    Number of faces shared with processor 11 = 1269
    Number of faces shared with processor 12 = 1293
    Number of faces shared with processor 13 = 91
    Number of faces shared with processor 15 = 1429
    Number of processor patches = 5
    Number of processor faces = 4566
    Number of boundary faces = 36214

Processor 15
    Number of cells = 138966
    Number of points = 189418
    Number of faces shared with processor 9 = 1130
    Number of faces shared with processor 10 = 952
    Number of faces shared with processor 11 = 711
    Number of faces shared with processor 12 = 41
    Number of faces shared with processor 13 = 1238
    Number of faces shared with processor 14 = 1429
    Number of processor patches = 6
    Number of processor faces = 5501
    Number of boundary faces = 39289

Number of processor faces = 45184
Max number of cells = 140627 (0.999522% above average 139235)
Max number of processor patches = 12 (74.5455% above average 6.875)
Max number of faces between processors = 8437 (49.3803% above average 5648)

Time = 0

Processor 0: field transfer
Processor 1: field transfer
Processor 2: field transfer
Processor 3: field transfer
Processor 4: field transfer
Processor 5: field transfer
Processor 6: field transfer
Processor 7: field transfer
Processor 8: field transfer
Processor 9: field transfer
Processor 10: field transfer
Processor 11: field transfer
Processor 12: field transfer
Processor 13: field transfer
Processor 14: field transfer
Processor 15: field transfer

End

/*---------------------------------------------------------------------------*\
| =========                 |                                                 |
| \\      /  F ield         | OpenFOAM: The Open Source CFD Toolbox           |
|  \\    /   O peration     | Version:  2406                                  |
|   \\  /    A nd           | Website:  www.openfoam.com                      |
|    \\/     M anipulation  |                                                 |
\*---------------------------------------------------------------------------*/
Build  : _630d60de3b-20240620 OPENFOAM=2406 version=v2406
Arch   : "LSB;label=32;scalar=64"
Exec   : reconstructParMesh -constant
Date   : Nov 21 2025
Time   : 11:31:39
Host   : eu-comp015.cluster.local
PID    : 1706736
I/O    : uncollated
Case   : /gpfs/ts0/projects/Research_Project-129871/rj429/run/simple_run/10_240_-5
nProcs : 1
trapFpe: Floating point exception trapping enabled (FOAM_SIGFPE).
fileModificationChecking : Monitoring run-time modified files using timeStampMaster (fileModificationSkew 5, maxFileModificationPolls 20)
allowSystemOperations : Allowing user-supplied system call operations

// * * * * * * * * * * * * * * * * * * * * * * * * * * * * * * * * * * * * * //
Create time

Merge individual processor meshes back into one master mesh.
Use if the original master mesh has been deleted or the processor meshes
have been modified (topology change).
This tool will write the resulting mesh to a new time step and construct
xxxxProcAddressing files in the processor meshes so reconstructPar can be
used to regenerate the fields on the master mesh.

Not well tested & use at your own risk!

Merge assuming correct, fully matched procBoundaries.

Found 16 processor directories
    Reading database "10_240_-5/processor0"
    Reading database "10_240_-5/processor1"
    Reading database "10_240_-5/processor2"
    Reading database "10_240_-5/processor3"
    Reading database "10_240_-5/processor4"
    Reading database "10_240_-5/processor5"
    Reading database "10_240_-5/processor6"
    Reading database "10_240_-5/processor7"
    Reading database "10_240_-5/processor8"
    Reading database "10_240_-5/processor9"
    Reading database "10_240_-5/processor10"
    Reading database "10_240_-5/processor11"
    Reading database "10_240_-5/processor12"
    Reading database "10_240_-5/processor13"
    Reading database "10_240_-5/processor14"
    Reading database "10_240_-5/processor15"

Time = constant


Writing merged mesh to "constant/polyMesh"

Reconstructing addressing from processor meshes to the newly reconstructed mesh

Processor 0
Read processor mesh: "10_240_-5/processor0"
Writing addressing : "10_240_-5/processor0/constant/polyMesh"
    pointProcAddressing
    faceProcAddressing
    cellProcAddressing
    boundaryProcAddressing

Processor 1
Read processor mesh: "10_240_-5/processor1"
Writing addressing : "10_240_-5/processor1/constant/polyMesh"
    pointProcAddressing
    faceProcAddressing
    cellProcAddressing
    boundaryProcAddressing

Processor 2
Read processor mesh: "10_240_-5/processor2"
Writing addressing : "10_240_-5/processor2/constant/polyMesh"
    pointProcAddressing
    faceProcAddressing
    cellProcAddressing
    boundaryProcAddressing

Processor 3
Read processor mesh: "10_240_-5/processor3"
Writing addressing : "10_240_-5/processor3/constant/polyMesh"
    pointProcAddressing
    faceProcAddressing
    cellProcAddressing
    boundaryProcAddressing

Processor 4
Read processor mesh: "10_240_-5/processor4"
Writing addressing : "10_240_-5/processor4/constant/polyMesh"
    pointProcAddressing
    faceProcAddressing
    cellProcAddressing
    boundaryProcAddressing

Processor 5
Read processor mesh: "10_240_-5/processor5"
Writing addressing : "10_240_-5/processor5/constant/polyMesh"
    pointProcAddressing
    faceProcAddressing
    cellProcAddressing
    boundaryProcAddressing

Processor 6
Read processor mesh: "10_240_-5/processor6"
Writing addressing : "10_240_-5/processor6/constant/polyMesh"
    pointProcAddressing
    faceProcAddressing
    cellProcAddressing
    boundaryProcAddressing

Processor 7
Read processor mesh: "10_240_-5/processor7"
Writing addressing : "10_240_-5/processor7/constant/polyMesh"
    pointProcAddressing
    faceProcAddressing
    cellProcAddressing
    boundaryProcAddressing

Processor 8
Read processor mesh: "10_240_-5/processor8"
Writing addressing : "10_240_-5/processor8/constant/polyMesh"
    pointProcAddressing
    faceProcAddressing
    cellProcAddressing
    boundaryProcAddressing

Processor 9
Read processor mesh: "10_240_-5/processor9"
Writing addressing : "10_240_-5/processor9/constant/polyMesh"
    pointProcAddressing
    faceProcAddressing
    cellProcAddressing
    boundaryProcAddressing

Processor 10
Read processor mesh: "10_240_-5/processor10"
Writing addressing : "10_240_-5/processor10/constant/polyMesh"
    pointProcAddressing
    faceProcAddressing
    cellProcAddressing
    boundaryProcAddressing

Processor 11
Read processor mesh: "10_240_-5/processor11"
Writing addressing : "10_240_-5/processor11/constant/polyMesh"
    pointProcAddressing
    faceProcAddressing
    cellProcAddressing
    boundaryProcAddressing

Processor 12
Read processor mesh: "10_240_-5/processor12"
Writing addressing : "10_240_-5/processor12/constant/polyMesh"
    pointProcAddressing
    faceProcAddressing
    cellProcAddressing
    boundaryProcAddressing

Processor 13
Read processor mesh: "10_240_-5/processor13"
Writing addressing : "10_240_-5/processor13/constant/polyMesh"
    pointProcAddressing
    faceProcAddressing
    cellProcAddressing
    boundaryProcAddressing

Processor 14
Read processor mesh: "10_240_-5/processor14"
Writing addressing : "10_240_-5/processor14/constant/polyMesh"
    pointProcAddressing
    faceProcAddressing
    cellProcAddressing
    boundaryProcAddressing

Processor 15
Read processor mesh: "10_240_-5/processor15"
Writing addressing : "10_240_-5/processor15/constant/polyMesh"
    pointProcAddressing
    faceProcAddressing
    cellProcAddressing
    boundaryProcAddressing

End

/*---------------------------------------------------------------------------*\
| =========                 |                                                 |
| \\      /  F ield         | OpenFOAM: The Open Source CFD Toolbox           |
|  \\    /   O peration     | Version:  2406                                  |
|   \\  /    A nd           | Website:  www.openfoam.com                      |
|    \\/     M anipulation  |                                                 |
\*---------------------------------------------------------------------------*/
Build  : _630d60de3b-20240620 OPENFOAM=2406 version=v2406
Arch   : "LSB;label=32;scalar=64"
Exec   : reconstructPar -latestTime
Date   : Nov 21 2025
Time   : 11:31:45
Host   : eu-comp015.cluster.local
PID    : 1706847
I/O    : uncollated
Case   : /gpfs/ts0/projects/Research_Project-129871/rj429/run/simple_run/10_240_-5
nProcs : 1
trapFpe: Floating point exception trapping enabled (FOAM_SIGFPE).
fileModificationChecking : Monitoring run-time modified files using timeStampMaster (fileModificationSkew 5, maxFileModificationPolls 20)
allowSystemOperations : Allowing user-supplied system call operations

// * * * * * * * * * * * * * * * * * * * * * * * * * * * * * * * * * * * * * //
Create time

--> FOAM Warning : 
    From int main(int, char**)
    in file reconstructPar.C at line 271
    No times selectedUsing:
  case     : /gpfs/ts0/projects/Research_Project-129871/rj429/run/simple_run/10_240_-5
  log      : log.SRFSimpleFoam
  database : /lustre/shared/isca_compute/software/OpenFOAM/v2406-foss-2023a/OpenFOAM-v2406/bin/tools/foamLog.db
  awk file : logs/foamLog.awk
  files to : logs

Executing: awk -f logs/foamLog.awk log.SRFSimpleFoam

Generated XY files for:
    Separator
    Time
End
Pitch angle =  -5
Cone angle =  10
vz/omega ratio = 0.010416666666666666
Directory copied successfully from 'blank_case' to '10_240_-5'.
Making SRFProperties File
Making Allrun file
successfully made allrun file
Ran Allrun for a cone angle (10) degrees, omega (240), pitch angle (-5), velocity/omega ratio (0.010416666666666666). Check log for more details
Completed script for pitch angle =  -5
